
&domains                 
time_step                = 50,
time_step_fract_num      = 0,
time_step_fract_den      = 1,
max_dom                  = 2,
e_we                     = 172,      157,  0,
e_sn                     = 175,      166,  0,
e_vert                   = 45,       45,   0,
p_top_requested          = 2000,
num_metgrid_levels       = 32,
num_metgrid_soil_levels  = 4,
dx                       = 9000,     3000,  1000,
dy                       = 9000,     3000,  1000,
grid_id                  = 1,        2,  0,
parent_id                = 1,        1,  0,
i_parent_start           = 1,       42,  0,
j_parent_start           = 1,       86,  0,
parent_grid_ratio        = 1,        3,  0,
parent_time_step_ratio   = 1,        3,  0,
feedback                 = 1,
smooth_option            = 0,
max_ts_locs              = 10,
tile_sz_x                = 8,
tile_sz_y                = 8,
/


nproc_x = 8,
nproc_y = 8,


&physics                 
mp_physics               = 6,        6,        6,
ra_lw_physics            = 1,        1,        1,
ra_sw_physics            = 1,        1,        1,
radt                     = 0,        0,        0,
sf_sfclay_physics        = 2,        2,        2,
sf_surface_physics       = 2,        2,        2,
bl_pbl_physics           = 2,        2,        2,
bldt                     = 0,        0,        0,
cu_physics               = 1,        0,        0,
cudt                     = 5,        5,        5,
isfflx                   = 1,
ifsnow                   = 0,
mp_zero_out              = 2,
mp_zero_out_thresh       = 1.e-8,
icloud                   = 1,
surface_input_source     = 1,
num_soil_layers          = 4,
sf_urban_physics         = 0,        0,        0,
maxiens                  = 1,
maxens                   = 3,
maxens2                  = 3,
maxens3                  = 16,
ensdim                   = 144,
sst_update               = 0,
slope_rad                = 1,1,1,
topo_shading             = 1,1,1,
shadlen                  = 25000.,
icloud_bl                = 0,
/

&fdda                    
obs_nudge_opt = 1,1,0,0,0
max_obs = 150000,
fdda_start = 0., 0., 0., 0., 0.
fdda_end = 180., 100., 99999., 99999., 99999.
obs_nudge_wind = 1,1,1,1,1
obs_coef_wind = 6.E-4,6.E-4,6.E-4,6.E-4,6.E-4
obs_nudge_temp = 1,1,1,1,1
obs_coef_temp = 6.E-4,6.E-4,6.E-4,6.E-4,6.E-4
obs_nudge_mois = 1,1,1,1,1
obs_coef_mois = 6.E-4,6.E-4,6.E-4,6.E-4,6.E-4
obs_rinxy = 240.,240.,180.,180,180
obs_rinsig = 0.1,
obs_twindo = 0.6666667,0.6666667,0.6666667,0.6666667,0.6666667,
obs_npfi = 10,
obs_ionf = 2, 2, 2, 2, 2,
obs_idynin = 0,
obs_dtramp = 40.,
obs_prt_freq = 10, 10, 10, 10, 10,
obs_prt_max = 10
obs_ipf_errob = .true.
obs_ipf_nudob = .true.
obs_ipf_in4dob = .true.
obs_ipf_init = .true.
/

&dynamics                
w_damping                = 1,
diff_opt                 = 1,1,1,
km_opt                   = 4,4,4,
diff_6th_opt             = 0,        0,        0,
diff_6th_factor          = 0.12,     0.12,     0.12,
base_temp                = 290.,
damp_opt                 = 3,
zdamp                    = 5000.,    5000.,    5000.,
dampcoef                 = 0.2,      0.2,      0.2,
khdif                    = 0,        0,        0,
kvdif                    = 0,        0,        0,
non_hydrostatic          = .true.,   .true.,   .true.,
moist_adv_opt            = 1,        1,        1,
scalar_adv_opt           = 1,        1,        1,
/

&bdy_control             
spec_bdy_width           = 5,
spec_zone                = 1,
relax_zone               = 4,
specified                = .true.,  .false.,  .false.,
nested                   = .false.,   .true.,   .true.,
/

&grib2                   
/

&namelist_quilt          
nio_tasks_per_group      = 0,
nio_groups               = 1,
/
                                                                                                                                                      
