&time_control
 run_days              = 000,
 run_hours             = 084,
 run_minutes           = 000,
 run_seconds           = 000,
 start_year            = 2017,2017,2017,
 start_month           = 02,02,02,
 start_day             = 27,27,27,
 start_hour            = 00,00,00,
 start_minute          = 00,00,
 start_second          = 00,00,
 end_year              = 2017,2017,2017,
 end_month             = 03,03,03,
 end_day               = 02,02,02,
 end_hour              = 12,12,12,
 end_minute            = 00,00,
 end_second            = 00,00,
 interval_seconds   = 21600,
 input_from_file    = .true., .true., .true.,
 io_form_auxinput2  = 2,
 fine_input_stream  = 0,0,0,
 history_interval   = 180 ,00180,00180,
 frames_per_outfile    = 999999,999999,999999,1,1,1,1,
 restart               = .false.,
 restart_interval      = 99999999,
 io_form_history       = 2,
 io_form_restart       = 2,
 io_form_input         = 2,
 io_form_boundary      = 2,
 debug_level           = 0,
 auxinput11_interval_s = 180, 180,180,
 auxinput11_end_h      = 3,3,3,
/

&domains
 parent_id         = 1,1,2,
 parent_grid_ratio = 1,3,3,
 i_parent_start    = 1,77,117,
 j_parent_start    = 1,81,124,
 e_we          = 304,334,325,
 e_sn          = 211,316,259,
 time_step                           = 60,
 time_step_fract_num                 = 0,
 time_step_fract_den                 = 1,
 max_dom                             = 1,
 e_vert                              = 43,  43,
 p_top_requested                     = 5000,
 num_metgrid_levels                  = 27,
 num_metgrid_soil_levels             = 4,
 dx                                  = 20000.,  6666.6666666666666,
 dy                                  = 20000.,  6666.666666666666,
 grid_id                             = 1,     2,
 parent_time_step_ratio              = 1,     3,
 feedback                            = 0,
 smooth_option                       = 0,
 lagrange_order                      = 2
 interp_type                         = 2
 lowest_lev_from_sfc                 = .false.,
 force_sfc_in_vinterp                = 0,
 zap_close_levels                    = 500,
 sfcp_to_sfcp                        = .true.,
 use_levels_below_ground             = .true.,
 hypsometric_opt                     = 2,
 max_ts_locs                         = 10,
/

nproc_x = 6,
nproc_y = 4,


 &physics
 mp_physics                          = 8,     8,     8,
 ra_lw_physics                       = 1,     1,     1,
 ra_sw_physics                       = 1,     1,     1,
 radt                                = 5,     5,     5,
 sf_sfclay_physics                   = 1,     1,     1,
 sf_surface_physics                  = 2,     2,     2,
 bl_pbl_physics                      = 8,     8,     8,
 bldt                                = 0,     0,     0,
 cu_physics                          = 5,     0,     0,
 cudt                                = 0,     0,     5,
 isfflx                              = 1,
 ifsnow                              = 0,
 icloud                              = 1,
 surface_input_source                = 1,
 num_soil_layers                     = 4,
 sf_urban_physics                    = 0,
 maxiens                             = 1,
 maxens                              = 3,
 maxens2                             = 3,
 maxens3                             = 16,
 ensdim                              = 144,
 num_land_cat                        = 28,      
 cam_abs_freq_s                      = 21600,
 levsiz                              = 59,
 paerlev                             = 29,
 cam_abs_dim1                        = 4,
 cam_abs_dim2                        = 28,
/
nproc_x = 8,
nproc_y = 16,

 &fdda
 obs_nudge_opt                       = 1,1,1,0,0,
 max_obs                             = 999999,
 fdda_start                          =     0.,     0.,     0.,     0.,     0.
 fdda_end                            = 180., 180., 99999., 99999., 99999.
 obs_nudge_wind                      = 1,1,1,1,1
 obs_coef_wind                       = 6.E-4,6.E-4,6.E-4,6.E-4,6.E-4
 obs_nudge_temp                      = 1,1,1,1,1
 obs_coef_temp                       = 6.E-4,6.E-4,6.E-4,6.E-4,6.E-4
 obs_nudge_mois                      = 1,1,1,1,1
 obs_coef_mois                       = 6.E-4,6.E-4,6.E-4,6.E-4,6.E-4
 obs_rinxy                           = 100.,50.,180.,180,180
 obs_rinsig                          = 0.1,
 obs_twindo                          = 0.6666667,0.6666667,0.6666667,0.6666667,0.6666667,
 obs_npfi                            = 10,
 obs_ionf                            = 2, 2, 2, 2, 2,
 obs_idynin                          = 0,
 obs_dtramp                          = 40.,
 obs_prt_max                         = 10,
 obs_ipf_errob                       = .true.
 obs_ipf_nudob                       = .true.
 obs_ipf_in4dob                      = .true.
 obs_ipf_init                        = .true.
/

 &dynamics
 w_damping                           = 1,
 diff_opt                            = 1,
 km_opt                              = 4,
 diff_6th_opt                        = 0,      0,
 diff_6th_factor                     = 0.12,   0.12,
 damp_opt                            = 3,
 zdamp                               = 5000.,  5000.,
 dampcoef                            = 0.2,    0.2,
 khdif                               = 0,      0,
 kvdif                               = 0,      0,
 non_hydrostatic                     = .true., .true.,
 moist_adv_opt                       = 1,      1,
 scalar_adv_opt                      = 1,      1,
 mix_isotropic                       = 0,      0,      0,      0,
 mix_upper_bound                     = 0.1     0.1,    0.1,    0.1,
 iso_temp                            = 200.,
 /

 &bdy_control
 spec_bdy_width                      = 5,
 spec_zone                           = 1,
 relax_zone                          = 4,
 specified                           = .true., .false.,
 nested                              = .false., .true.,
 /

 &grib2
 /

 &namelist_quilt
 nio_tasks_per_group = 0,
 nio_groups = 1,
 /

