
&domains                 
time_step                = 45,
time_step_fract_num      = 0,
time_step_fract_den      = 1,
max_dom                  = 2,
e_we                     =     172,      157, 0,
e_sn                     =     175,      166, 0,
e_vert                   =      45,       45, 0,
p_top_requested          = 2000,
num_metgrid_levels       = 32,
num_metgrid_soil_levels  = 4,
dx                       =    9000,     3000, 0,
dy                       =    9000,     3000, 0,
grid_id                  =  1,        2, 0,
parent_id                =  1,        1, 0,
i_parent_start           =  1,       42, 0,
j_parent_start           =  1,       86, 0,
parent_grid_ratio        =  3,        3, 0,
parent_time_step_ratio   =  3,        3, 0,
feedback                 = 1,
smooth_option            = 0,
max_ts_locs              = 10,
nproc_x = 8,
nproc_y = 16,

/




&physics                 
mp_physics               = 8,        8,        8,
ra_lw_physics            = 4,        4,        4,
ra_sw_physics            = 4,        4,        4,
radt                     = 0,        0,        0,
sf_sfclay_physics        = 2,        2,        2,
sf_surface_physics       = 2,        2,        2,
bl_pbl_physics           = 2,        2,        2,
bldt                     = 0,        0,        0,
cu_physics               = 1,        0,        0,
cudt                     = 5,        5,        5,
isfflx                   = 1,
ifsnow                   = 0,
mp_zero_out              = 2,
mp_zero_out_thresh       = 1.e-8,
icloud                   = 1,
surface_input_source     = 1,
num_soil_layers          = 4,
sf_urban_physics         = 0,        0,        0,
maxiens                  = 1,
maxens                   = 3,
maxens2                  = 3,
maxens3                  = 16,
ensdim                   = 144,
sst_update               = 0,
slope_rad                = 1,1,1,
topo_shading             = 1,1,1,
shadlen                  = 25000.,
icloud_bl                = 0,
/

&fdda                    
/

&dynamics                
w_damping                = 1,
diff_opt                 = 1,1,1,
km_opt                   = 4,4,4,
diff_6th_opt             = 0,        0,        0,
diff_6th_factor          = 0.12,     0.12,     0.12,
base_temp                = 290.,
damp_opt                 = 3,
zdamp                    = 5000.,    5000.,    5000.,
dampcoef                 = 0.2,      0.2,      0.2,
khdif                    = 0,        0,        0,
kvdif                    = 0,        0,        0,
non_hydrostatic          = .true.,   .true.,   .true.,
moist_adv_opt            = 1,        1,        1,
scalar_adv_opt           = 1,        1,        1,
/

&bdy_control             
spec_bdy_width           = 5,
spec_zone                = 1,
relax_zone               = 4,
specified                = .true.,  .false.,  .false.,
nested                   = .false.,  .true.,   .true.,
/

&grib2                   
/

&namelist_quilt          
nio_tasks_per_group      = 0,
nio_groups               = 1,
/
                                                                                                                                                      
