

&domains
time_step                = 90,
time_step_fract_num      = 0,
time_step_fract_den      = 1,
max_dom                  = 3,
e_we                     = 188,      172,      157,
e_sn                     = 141,      175,      166,
e_vert                   = 45,       45,       45,
p_top_requested          = 2000,
num_metgrid_levels       = 27,
num_metgrid_soil_levels  = 4,
dx                       = 27000,     9000,     3000,
dy                       = 27000,     9000,     3000,
grid_id                  = 1,        2,        3,
parent_id                = 1,        1,        2,
i_parent_start           = 1,       72,       42,
j_parent_start           = 1,       33,       86,
parent_grid_ratio        = 1,        3,        3,
parent_time_step_ratio   = 1,        3,        3,
feedback                 = 1,
smooth_option            = 0,
max_ts_locs              = 10,
/
nproc_x = 8,
nproc_y = 8,



&physics
mp_physics               = 8,        8,        8,
ra_lw_physics            = 4,        4,        4,
ra_sw_physics            = 4,        4,        4,
radt                     = 1,       1,       1,
sf_sfclay_physics        = 5,        5,        5,
sf_surface_physics       = 2,        2,        2,
bl_pbl_physics           = 5,        5,        5,
bldt                     = 0,        0,        0,
cu_physics               = 1,        1,        0,
cudt                     = 5,        5,        5,
isfflx                   = 1,
ifsnow                   = 0,
mp_zero_out              = 2,
mp_zero_out_thresh       = 1.e-8,
icloud                   = 1,
surface_input_source     = 1,
num_soil_layers          = 4,
sf_urban_physics         = 0,        0,        0,
maxiens                  = 1,
maxens                   = 3,
maxens2                  = 3,
maxens3                  = 16,
ensdim                   = 144,
sst_update               = 1,
slope_rad                = 1,1,1,
topo_shading             = 1,1,1,
shadlen                  = 25000.,
icloud_bl                = 0,
levsiz = 59,
paerlev = 29,
cam_abs_dim1 = 4,
cam_abs_dim2 = 45,
/

&fdda
/

&dynamics
w_damping                = 1,
diff_opt                 = 1,1,1,
km_opt                   = 4,4,4,
diff_6th_opt             = 0,        0,        0,
diff_6th_factor          = 0.12,     0.12,     0.12,
base_temp                = 290.,
damp_opt                 = 3,
zdamp                    = 5000.,    5000.,    5000.,
dampcoef                 = 0.2,      0.2,      0.2,
khdif                    = 0,        0,        0,
kvdif                    = 0,        0,        0,
non_hydrostatic          = .true.,   .true.,   .true.,
moist_adv_opt            = 1,        1,        1,
scalar_adv_opt           = 1,        1,        1,
/

&bdy_control
spec_bdy_width           = 5,
spec_zone                = 1,
relax_zone               = 4,
specified                = .true.,  .false.,  .false.,
nested                   = .false.,   .true.,   .true.,
/

&grib2
/

&namelist_quilt
nio_tasks_per_group      = 0,
nio_groups               = 1,
/
