&time_control
 run_days              = 000,
 run_hours             = 002,
 run_minutes           = 000,
 run_seconds           = 000,
 start_year            = 2017,2017,2017,
 start_month           = 05,05,05,
 start_day             = 13,13,13,
 start_hour            = 00,00,00,
 start_minute          = 00,00,
 start_second          = 00,00,
 end_year              = 2017,2017,2017,
 end_month             = 05,05,05,
 end_day               = 13,13,13,
 end_hour              = 02,02,02,
 end_minute            = 00,00,
 end_second            = 00,00,
 interval_seconds   = 03600,
 input_from_file    = .true., .true., .true.,
 io_form_auxinput2  = 2,
 fine_input_stream  = 0,0,0,
 history_interval   = 00060,00060,00060,
 frames_per_outfile = 99999999,99999999,99999999,
 restart               = .false.,
 restart_interval      = 99999999,
 io_form_history       = 2,
 io_form_restart       = 2,
 io_form_input         = 2,
 io_form_boundary      = 2,
 debug_level           = 0,
 auxinput11_interval_s = 180, 180,180,
 auxinput11_end_h      = 3,3,3,
/
