
 &domains
 time_step                           = 60,
 time_step_fract_num                 = 0,
 time_step_fract_den                 = 1,
 max_dom                             = 2,
 e_we                                = 150,190,169,
 e_sn                                = 150,148,190,
 p_top_requested                     = 5000,
 e_vert                              = 35,      35,    35,
 p_top_requested                     = 5000,
 num_metgrid_levels                  = 40,
 num_metgrid_soil_levels             = 4,
 dx                                  = 9000, 3000,  1000,
 dy                                  = 9000, 3000,  1000,
 grid_id                             = 1,     2,     3,
 parent_id                           = 0,     1,     2,
 i_parent_start                      = 1,44,40,
 j_parent_start                      = 1,51,33,
 parent_grid_ratio                   = 1,     3,     3,
 parent_time_step_ratio              = 1,     3,     3,
 feedback                            = 1,
 smooth_option                       = 0,
/
nproc_x = 8, 
nproc_y = 6,



 &physics
 mp_physics                          = 6,     6,     6,
 ra_lw_physics                       = 1,     1,     1,
 ra_sw_physics                       = 1,     1,     1,
 radt                                = 5,     5,     5,
 sf_sfclay_physics                   = 5,     5,     5,
 sf_surface_physics                  = 2,     2,     2,
 bl_pbl_physics                      = 5,     5,     5,
 bldt                                = 0,     0,     0,
 cu_physics                          = 5,     0,     0,
 cudt                                = 0,     0,     5,
 isfflx                              = 1,
 ifsnow                              = 0,
 icloud                              = 1,
 surface_input_source                = 1,
 num_soil_layers                     = 4,
 sf_urban_physics                    = 0,
 maxiens                             = 1,
 maxens                              = 3,
 maxens2                             = 3,
 maxens3                             = 16,
 ensdim                              = 144,
 num_land_cat                        = 24,      
 cam_abs_freq_s                      = 21600,
 levsiz                              = 59,
 paerlev                             = 29,
 cam_abs_dim1                        = 4,
 cam_abs_dim2                        = 28,
 prec_acc_dt                          = 60,60,60,
 /

 &fdda
 obs_nudge_opt                       = 1,1,0,0,0,
 max_obs                             = 999999,
 fdda_start                          =     0.,     0.,     0.,     0.,     0.
 fdda_end                            = 180., 180., 99999., 99999., 99999.
 obs_nudge_wind                      = 1,1,1,1,1
 obs_coef_wind                       = 6.E-4,6.E-4,6.E-4,6.E-4,6.E-4
 obs_nudge_temp                      = 1,1,1,1,1
 obs_coef_temp                       = 6.E-4,6.E-4,6.E-4,6.E-4,6.E-4
 obs_nudge_mois                      = 1,1,1,1,1
 obs_coef_mois                       = 6.E-4,6.E-4,6.E-4,6.E-4,6.E-4
 obs_rinxy                           = 100.,50.,180.,180,180
 obs_rinsig                          = 0.1,
 obs_twindo                          = 0.6666667,0.6666667,0.6666667,0.6666667,0.6666667,
 obs_npfi                            = 10,
 obs_ionf                            = 2, 2, 2, 2, 2,
 obs_idynin                          = 0,
 obs_dtramp                          = 40.,
 obs_prt_max                         = 10, 
 obs_ipf_errob                       = .true.
 obs_ipf_nudob                       = .true.
 obs_ipf_in4dob                      = .true.
 obs_ipf_init                        = .true.
/

 &dynamics
 w_damping                           = 1,
 diff_opt                            = 1,
 km_opt                              = 4,
 diff_6th_opt                        = 2,2,2,
 diff_6th_factor                     = 0.12,   0.12,   0.12,
 base_temp                           = 290.
 damp_opt                            = 0,
 zdamp                               = 5000.,  5000.,  5000.,
 dampcoef                            = 0.2,    0.2,    0.2
 khdif                               = 0,      0,      0,
 kvdif                               = 0,      0,      0,
 non_hydrostatic                     = .true., .true., .true.,
 moist_adv_opt                       = 1,      1,      1,     
 scalar_adv_opt                      = 1,      1,      1,     
 tke_adv_opt                         = 1,       1,     1,
 /


 diff_6th_opt                        = 0,      0,      0,
 diff_6th_factor                     = 0.12,   0.12,   0.12,


 &bdy_control
 spec_bdy_width                      = 5,
 spec_zone                           = 1,
 relax_zone                          = 4,
 specified                           = .true., .false.,.false.,
 nested                              = .false., .true., .true.,
 /

 &grib2
 /

 &namelist_quilt
 nio_tasks_per_group = 0,
 nio_groups = 1,
 /
